NCGC00017112-10
 OpenBabel06141707472D

 19 19  0  0  0  0  0  0  0  0999 V2000
    4.1273   -2.8614    0.0000 C   0  0  0  0  0  0  0  0  0  0  0  0
    3.7153   -2.1423    0.0000 C   0  0  0  0  0  0  0  0  0  0  0  0
    4.1273   -1.4307    0.0000 C   0  0  0  0  0  0  0  0  0  0  0  0
    3.7153   -0.7116    0.0000 C   0  0  0  0  0  0  0  0  0  0  0  0
    4.1273    0.0000    0.0000 O   0  0  0  0  0  0  0  0  0  0  0  0
    2.8914   -0.7116    0.0000 N   0  0  0  0  0  0  0  0  0  0  0  0
    2.4793    0.0000    0.0000 O   0  0  0  0  0  0  0  0  0  0  0  0
    2.4793   -1.4307    0.0000 C   0  0  0  0  0  0  0  0  0  0  0  0
    2.8914   -2.1423    0.0000 C   0  0  0  0  0  0  0  0  0  0  0  0
    1.6554   -1.4307    0.0000 C   0  0  0  0  0  0  0  0  0  0  0  0
    1.2359   -0.7116    0.0000 C   0  0  0  0  0  0  0  0  0  0  0  0
    0.4195   -0.7116    0.0000 C   0  0  0  0  0  0  0  0  0  0  0  0
    0.0000   -1.4307    0.0000 C   0  0  0  0  0  0  0  0  0  0  0  0
    0.4195   -2.1423    0.0000 C   0  0  0  0  0  0  0  0  0  0  0  0
    1.2359   -2.1423    0.0000 C   0  0  0  0  0  0  0  0  0  0  0  0
    5.4306   -1.4307    0.0000 N   0  0  0  0  0  0  0  0  0  0  0  0
    6.2546   -1.4307    0.0000 C   0  0  0  0  0  0  0  0  0  0  0  0
    6.6666   -0.7116    0.0000 C   0  0  0  0  0  0  0  0  0  0  0  0
    7.4906   -0.7116    0.0000 O   0  0  0  0  0  0  0  0  0  0  0  0
  1  2  1  0  0  0  0
  2  3  2  0  0  0  0
  2  9  1  0  0  0  0
  3  4  1  0  0  0  0
  4  5  2  0  0  0  0
  4  6  1  0  0  0  0
  6  7  1  0  0  0  0
  6  8  1  0  0  0  0
  8  9  2  0  0  0  0
  8 10  1  0  0  0  0
 10 11  1  0  0  0  0
 10 15  1  0  0  0  0
 11 12  1  0  0  0  0
 12 13  1  0  0  0  0
 13 14  1  0  0  0  0
 14 15  1  0  0  0  0
 16 17  1  0  0  0  0
 17 18  1  0  0  0  0
 18 19  1  0  0  0  0
M  END
>  <Formula>
C14H24N2O3

>  <FW>
268.3520 (207.2689+61.0831)

>  <DSSTox_CID>
25583

>  <SR-HSE>
1

$$$$
