NCGC00159478-04
 OpenBabel06141707472D

 19 21  0  0  0  0  0  0  0  0999 V2000
    2.1399   -0.8149    0.0000 C   0  0  0  0  0  0  0  0  0  0  0  0
    2.8598   -1.2350    0.0000 O   0  0  0  0  0  0  0  0  0  0  0  0
    2.8598   -2.0599    0.0000 C   0  0  0  0  0  0  0  0  0  0  0  0
    3.5648   -2.4699    0.0000 C   0  0  0  0  0  0  0  0  0  0  0  0
    4.2848   -2.0599    0.0000 N   0  0  0  0  0  0  0  0  0  0  0  0
    2.1399    0.0000    0.0000 O   0  0  0  0  0  0  0  0  0  0  0  0
    1.4349   -1.2350    0.0000 C   0  0  0  0  0  0  0  0  0  0  0  0
    3.5648   -3.2949    0.0000 C   0  0  0  0  0  0  0  0  0  0  0  0
    2.1399   -2.4699    0.0000 C   0  0  0  0  0  0  0  0  0  0  0  0
    2.1399   -3.2949    0.0000 C   0  0  0  0  0  0  0  0  0  0  0  0
    4.9998   -2.4699    0.0000 C   0  0  0  0  0  0  0  0  0  0  0  0
    2.8598   -3.7048    0.0000 C   0  0  0  0  0  0  0  0  0  0  0  0
    0.7149   -0.8149    0.0000 C   0  0  0  0  0  0  0  0  0  0  0  0
    1.4349   -2.0599    0.0000 C   0  0  0  0  0  0  0  0  0  0  0  0
    4.2848   -3.7048    0.0000 C   0  0  0  0  0  0  0  0  0  0  0  0
    4.9998   -3.2949    0.0000 C   0  0  0  0  0  0  0  0  0  0  0  0
    0.7149   -2.4699    0.0000 C   0  0  0  0  0  0  0  0  0  0  0  0
    0.0000   -1.2350    0.0000 C   0  0  0  0  0  0  0  0  0  0  0  0
    0.0000   -2.0599    0.0000 C   0  0  0  0  0  0  0  0  0  0  0  0
  1  2  1  0  0  0  0
  1  6  2  0  0  0  0
  1  7  1  0  0  0  0
  2  3  1  0  0  0  0
  3  4  1  0  0  0  0
  3  9  2  0  0  0  0
  4  5  1  0  0  0  0
  4  8  2  0  0  0  0
  5 11  2  0  0  0  0
  7 13  1  0  0  0  0
  7 14  2  0  0  0  0
  8 15  1  0  0  0  0
  8 12  1  0  0  0  0
  9 10  1  0  0  0  0
 10 12  2  0  0  0  0
 11 16  1  0  0  0  0
 13 18  2  0  0  0  0
 14 17  1  0  0  0  0
 15 16  2  0  0  0  0
 17 19  2  0  0  0  0
 18 19  1  0  0  0  0
M  END
>  <Formula>
C16H11NO2

>  <FW>
249.2640

>  <DSSTox_CID>
26069

>  <SR-ARE>
1

>  <SR-HSE>
1

$$$$
