NCGC00015959-09
 OpenBabel06141707472D

 25 30  0  0  0  0  0  0  0  0999 V2000
    3.4098   -1.3130    0.0000 N   0  3  0  0  0  0  0  0  0  0  0  0
    4.8329   -1.3130    0.0000 C   0  0  0  0  0  0  0  0  0  0  0  0
    3.4098   -2.1380    0.0000 C   0  0  0  0  0  0  0  0  0  0  0  0
    4.1248   -2.5436    0.0000 C   0  0  0  0  0  0  0  0  0  0  0  0
    2.6948   -2.5436    0.0000 C   0  0  0  0  0  0  0  0  0  0  0  0
    4.8329   -2.1380    0.0000 C   0  0  0  0  0  0  0  0  0  0  0  0
    4.1248   -0.8937    0.0000 C   0  0  0  0  0  0  0  0  0  0  0  0
    5.5547   -0.8937    0.0000 C   0  0  0  0  0  0  0  0  0  0  0  0
    1.9799   -2.1380    0.0000 C   0  0  0  0  0  0  0  0  0  0  0  0
    2.6948   -3.3548    0.0000 C   0  0  0  0  0  0  0  0  0  0  0  0
    1.2718   -2.5436    0.0000 C   0  0  0  0  0  0  0  0  0  0  0  0
    1.2718   -3.3548    0.0000 C   0  0  0  0  0  0  0  0  0  0  0  0
    4.1248   -3.3548    0.0000 C   0  0  0  0  0  0  0  0  0  0  0  0
    1.9799   -3.7741    0.0000 C   0  0  0  0  0  0  0  0  0  0  0  0
    5.5547   -2.5436    0.0000 C   0  0  0  0  0  0  0  0  0  0  0  0
    6.2765   -1.3130    0.0000 C   0  0  0  0  0  0  0  0  0  0  0  0
    5.7128   -0.0894    0.0000 O   0  0  0  0  0  0  0  0  0  0  0  0
    0.4881   -2.2755    0.0000 O   0  0  0  0  0  0  0  0  0  0  0  0
    0.4881   -3.6160    0.0000 O   0  0  0  0  0  0  0  0  0  0  0  0
    6.8746   -0.7562    0.0000 O   0  0  0  0  0  0  0  0  0  0  0  0
    6.5378    0.0000    0.0000 C   0  0  0  0  0  0  0  0  0  0  0  0
    0.0000   -2.9423    0.0000 C   0  0  0  0  0  0  0  0  0  0  0  0
    3.4098   -3.7741    0.0000 C   0  0  0  0  0  0  0  0  0  0  0  0
    6.2765   -2.1380    0.0000 C   0  0  0  0  0  0  0  0  0  0  0  0
    2.6948   -0.8937    0.0000 C   0  0  0  0  0  0  0  0  0  0  0  0
  1  3  1  0  0  0  0
  1  7  2  0  0  0  0
  1 25  1  0  0  0  0
  2  7  1  0  0  0  0
  2  6  2  0  0  0  0
  2  8  1  0  0  0  0
  3  4  2  0  0  0  0
  3  5  1  0  0  0  0
  4 13  1  0  0  0  0
  4  6  1  0  0  0  0
  5  9  1  0  0  0  0
  5 10  2  0  0  0  0
  6 15  1  0  0  0  0
  8 16  2  0  0  0  0
  8 17  1  0  0  0  0
  9 11  2  0  0  0  0
 10 14  1  0  0  0  0
 10 23  1  0  0  0  0
 11 18  1  0  0  0  0
 11 12  1  0  0  0  0
 12 14  2  0  0  0  0
 12 19  1  0  0  0  0
 13 23  2  0  0  0  0
 15 24  2  0  0  0  0
 16 20  1  0  0  0  0
 16 24  1  0  0  0  0
 17 21  1  0  0  0  0
 18 22  1  0  0  0  0
 19 22  1  0  0  0  0
 20 21  1  0  0  0  0
M  CHG  1   1   1
M  END
>  <Formula>
C20H14NO4

>  <FW>
332.3289

>  <DSSTox_CID>
25204

>  <SR-HSE>
1

$$$$
