NCGC00018250-06
 OpenBabel06141707472D

 28 29  0  0  0  0  0  0  0  0999 V2000
    2.1464   -2.4879    0.0000 C   0  0  0  0  0  0  0  0  0  0  0  0
    1.4438   -2.8940    0.0000 C   0  0  0  0  0  0  0  0  0  0  0  0
    3.5837   -4.1380    0.0000 N   0  0  0  0  0  0  0  0  0  0  0  0
    4.9050   -4.2991    0.0000 N   0  0  0  0  0  0  0  0  0  0  0  0
    2.8618   -2.9069    0.0000 C   0  0  3  0  0  0  0  0  0  0  0  0
    4.2991   -3.7319    0.0000 C   0  0  0  0  0  0  0  0  0  0  0  0
    0.7155   -2.4879    0.0000 C   0  0  0  0  0  0  0  0  0  0  0  0
    2.1464   -1.6501    0.0000 C   0  0  0  0  0  0  0  0  0  0  0  0
    3.5837   -2.4879    0.0000 S   0  0  0  0  0  0  0  0  0  0  0  0
    2.8618   -3.7319    0.0000 C   0  0  0  0  0  0  0  0  0  0  0  0
    4.5763   -5.0339    0.0000 C   0  0  0  0  0  0  0  0  0  0  0  0
    3.7577   -4.9437    0.0000 C   0  0  0  0  0  0  0  0  0  0  0  0
    0.7155   -1.6501    0.0000 C   0  0  0  0  0  0  0  0  0  0  0  0
    1.4438   -3.7191    0.0000 Cl  0  0  0  0  0  0  0  0  0  0  0  0
    3.5837   -1.6629    0.0000 C   0  0  0  0  0  0  0  0  0  0  0  0
    1.4438   -1.2440    0.0000 C   0  0  0  0  0  0  0  0  0  0  0  0
    5.7300   -0.4189    0.0000 C   0  0  0  0  0  0  0  0  0  0  0  0
    4.2991   -1.2568    0.0000 C   0  0  0  0  0  0  0  0  0  0  0  0
    0.0000   -1.2311    0.0000 Cl  0  0  0  0  0  0  0  0  0  0  0  0
    6.4454    0.0000    0.0000 Cl  0  0  0  0  0  0  0  0  0  0  0  0
    5.7300   -1.2568    0.0000 C   0  0  0  0  0  0  0  0  0  0  0  0
    5.0146   -0.0129    0.0000 C   0  0  0  0  0  0  0  0  0  0  0  0
    5.0146   -1.6629    0.0000 C   0  0  0  0  0  0  0  0  0  0  0  0
    4.2991   -0.4189    0.0000 C   0  0  0  0  0  0  0  0  0  0  0  0
    6.0072   -2.8940    0.0000 N   0  3  0  0  0  0  0  0  0  0  0  0
    6.4132   -3.6094    0.0000 O   0  5  0  0  0  0  0  0  0  0  0  0
    6.4261   -2.1915    0.0000 O   0  0  0  0  0  0  0  0  0  0  0  0
    5.1821   -2.8747    0.0000 O   0  0  0  0  0  0  0  0  0  0  0  0
  1  2  1  0  0  0  0
  1  5  1  0  0  0  0
  1  8  2  0  0  0  0
  2  7  2  0  0  0  0
  2 14  1  0  0  0  0
  3 10  1  0  0  0  0
  3  6  1  0  0  0  0
  3 12  1  0  0  0  0
  4  6  2  0  0  0  0
  4 11  1  0  0  0  0
  5  9  1  0  0  0  0
  5 10  1  0  0  0  0
  7 13  1  0  0  0  0
  8 16  1  0  0  0  0
  9 15  1  0  0  0  0
 11 12  2  0  0  0  0
 13 16  2  0  0  0  0
 13 19  1  0  0  0  0
 15 18  1  0  0  0  0
 17 22  2  0  0  0  0
 17 20  1  0  0  0  0
 17 21  1  0  0  0  0
 18 23  1  0  0  0  0
 18 24  2  0  0  0  0
 21 23  2  0  0  0  0
 22 24  1  0  0  0  0
 25 26  1  0  0  0  0
 25 27  2  0  0  0  0
 25 28  1  0  0  0  0
M  CHG  2  25   1  26  -1
M  END
>  <Formula>
C18H16Cl3N3O3S

>  <FW>
460.7619 (397.7491+63.0128)

>  <DSSTox_CID>
25490

>  <SR-HSE>
1

$$$$
