NCGC00256272-01
 OpenBabel06141707472D

 34 39  0  0  0  0  0  0  0  0999 V2000
    6.2419    0.0000    0.0000 O   0  0  0  0  0  0  0  0  0  0  0  0
    0.4093   -7.6131    0.0000 O   0  0  0  0  0  0  0  0  0  0  0  0
    9.8131   -7.6131    0.0000 O   0  0  0  0  0  0  0  0  0  0  0  0
    5.8326   -5.6689    0.0000 C   0  0  0  0  0  0  0  0  0  0  0  0
    6.5489   -5.2596    0.0000 C   0  0  0  0  0  0  0  0  0  0  0  0
    7.2550   -5.6689    0.0000 C   0  0  0  0  0  0  0  0  0  0  0  0
    7.2550   -6.4875    0.0000 C   0  0  0  0  0  0  0  0  0  0  0  0
    6.5489   -6.8968    0.0000 C   0  0  0  0  0  0  0  0  0  0  0  0
    5.8326   -6.4875    0.0000 C   0  0  0  0  0  0  0  0  0  0  0  0
    9.3936   -6.8968    0.0000 C   0  0  3  0  0  0  0  0  0  0  0  0
   10.2327   -6.8968    0.0000 C   0  0  0  0  0  0  0  0  0  0  0  0
    5.1163   -4.4205    0.0000 C   0  0  0  0  0  0  0  0  0  0  0  0
    4.4001   -4.0215    0.0000 C   0  0  0  0  0  0  0  0  0  0  0  0
    4.4001   -3.1926    0.0000 C   0  0  0  0  0  0  0  0  0  0  0  0
    5.1163   -2.7833    0.0000 C   0  0  0  0  0  0  0  0  0  0  0  0
    5.8326   -3.1926    0.0000 C   0  0  0  0  0  0  0  0  0  0  0  0
    5.8326   -4.0215    0.0000 C   0  0  0  0  0  0  0  0  0  0  0  0
    5.8326   -0.7163    0.0000 C   0  0  3  0  0  0  0  0  0  0  0  0
    5.4233    0.0000    0.0000 C   0  0  0  0  0  0  0  0  0  0  0  0
    4.4001   -5.6689    0.0000 C   0  0  0  0  0  0  0  0  0  0  0  0
    4.4001   -6.4875    0.0000 C   0  0  0  0  0  0  0  0  0  0  0  0
    3.6838   -6.8968    0.0000 C   0  0  0  0  0  0  0  0  0  0  0  0
    2.9777   -6.4875    0.0000 C   0  0  0  0  0  0  0  0  0  0  0  0
    2.9777   -5.6689    0.0000 C   0  0  0  0  0  0  0  0  0  0  0  0
    3.6838   -5.2596    0.0000 C   0  0  0  0  0  0  0  0  0  0  0  0
    0.8391   -6.8968    0.0000 C   0  0  3  0  0  0  0  0  0  0  0  0
    0.0000   -6.8968    0.0000 C   0  0  0  0  0  0  0  0  0  0  0  0
    5.1163   -5.2596    0.0000 C   0  0  0  0  0  0  0  0  0  0  0  0
    5.1163   -1.9544    0.0000 O   0  0  0  0  0  0  0  0  0  0  0  0
    5.8326   -1.5451    0.0000 C   0  0  0  0  0  0  0  0  0  0  0  0
    2.2614   -6.8968    0.0000 O   0  0  0  0  0  0  0  0  0  0  0  0
    1.5451   -6.4875    0.0000 C   0  0  0  0  0  0  0  0  0  0  0  0
    7.9713   -6.8968    0.0000 O   0  0  0  0  0  0  0  0  0  0  0  0
    8.6875   -6.4875    0.0000 C   0  0  0  0  0  0  0  0  0  0  0  0
  1 19  1  0  0  0  0
  1 18  1  0  0  0  0
  2 27  1  0  0  0  0
  2 26  1  0  0  0  0
  3 11  1  0  0  0  0
  3 10  1  0  0  0  0
  4  5  2  0  0  0  0
  4  9  1  0  0  0  0
  4 28  1  0  0  0  0
  5  6  1  0  0  0  0
  6  7  2  0  0  0  0
  7  8  1  0  0  0  0
  7 33  1  0  0  0  0
  8  9  2  0  0  0  0
 10 11  1  0  0  0  0
 10 34  1  0  0  0  0
 12 13  2  0  0  0  0
 12 17  1  0  0  0  0
 12 28  1  0  0  0  0
 13 14  1  0  0  0  0
 14 15  2  0  0  0  0
 15 16  1  0  0  0  0
 15 29  1  0  0  0  0
 16 17  2  0  0  0  0
 18 19  1  0  0  0  0
 18 30  1  0  0  0  0
 20 25  2  0  0  0  0
 20 21  1  0  0  0  0
 20 28  1  0  0  0  0
 21 22  2  0  0  0  0
 22 23  1  0  0  0  0
 23 24  2  0  0  0  0
 23 31  1  0  0  0  0
 24 25  1  0  0  0  0
 26 27  1  0  0  0  0
 26 32  1  0  0  0  0
 29 30  1  0  0  0  0
 31 32  1  0  0  0  0
 33 34  1  0  0  0  0
M  END
>  <Formula>
C28H28O6

>  <FW>
460.5183

>  <DSSTox_CID>
24971

>  <NR-AR>
0

>  <NR-ER-LBD>
0

>  <NR-AhR>
0

>  <SR-ARE>
1

>  <SR-HSE>
1

>  <SR-p53>
0

$$$$
