NCGC00025345-02
 OpenBabel06141707472D

 20 20  0  0  1  0  0  0  0  0999 V2000
    0.0000   -1.2433    0.0000 C   0  0  0  0  0  0  0  0  0  0  0  0
    0.0000   -2.0683    0.0000 C   0  0  0  0  0  0  0  0  0  0  0  0
    0.7219   -2.4808    0.0000 C   0  0  0  0  0  0  0  0  0  0  0  0
    1.4324   -2.0683    0.0000 C   0  0  0  0  0  0  0  0  0  0  0  0
    1.4324   -1.2433    0.0000 C   0  0  0  0  0  0  0  0  0  0  0  0
    0.7219   -0.8251    0.0000 C   0  0  0  0  0  0  0  0  0  0  0  0
    2.1543   -0.8251    0.0000 O   0  0  0  0  0  0  0  0  0  0  0  0
    2.8647   -1.2433    0.0000 C   0  0  2  0  0  0  0  0  0  0  0  0
    3.5866   -0.8251    0.0000 C   0  0  0  0  0  0  0  0  0  0  0  0
    2.8647   -2.0683    0.0000 C   0  0  0  0  0  0  0  0  0  0  0  0
    3.5866   -2.4808    0.0000 C   0  0  0  0  0  0  0  0  0  0  0  0
    3.5866   -3.3058    0.0000 C   0  0  0  0  0  0  0  0  0  0  0  0
    2.8647   -3.7241    0.0000 C   0  0  0  0  0  0  0  0  0  0  0  0
    2.1543   -3.3058    0.0000 C   0  0  0  0  0  0  0  0  0  0  0  0
    2.1543   -2.4808    0.0000 C   0  0  0  0  0  0  0  0  0  0  0  0
    0.7219    0.0000    0.0000 C   0  0  0  0  0  0  0  0  0  0  0  0
    4.2970   -1.2433    0.0000 C   0  0  0  0  0  0  0  0  0  0  0  0
    5.0189   -0.8251    0.0000 N   0  0  0  0  0  0  0  0  0  0  0  0
    5.7294   -1.2433    0.0000 C   0  0  0  0  0  0  0  0  0  0  0  0
    4.6236   -1.9537    0.0000 Cl  0  0  0  0  0  0  0  0  0  0  0  0
  1  6  1  0  0  0  0
  1  2  2  0  0  0  0
  2  3  1  0  0  0  0
  3  4  2  0  0  0  0
  4  5  1  0  0  0  0
  5  6  2  0  0  0  0
  5  7  1  0  0  0  0
  6 16  1  0  0  0  0
  7  8  1  0  0  0  0
  8 10  1  0  0  0  0
  8  9  1  6  0  0  0
  9 17  1  0  0  0  0
 10 11  2  0  0  0  0
 10 15  1  0  0  0  0
 11 12  1  0  0  0  0
 12 13  2  0  0  0  0
 13 14  1  0  0  0  0
 14 15  2  0  0  0  0
 17 18  1  0  0  0  0
 18 19  1  0  0  0  0
M  END
>  <Formula>
C17H22ClNO

>  <FW>
291.8157 (255.3547+36.4609)

>  <DSSTox_CID>
24266

>  <SR-HSE>
0

$$$$
