NCGC00159424-04
 OpenBabel06141707472D

 11 10  0  0  0  0  0  0  0  0999 V2000
    2.0662   -2.1442    0.0000 S   0  0  0  0  0  0  0  0  0  0  0  0
    2.4787   -1.4307    0.0000 C   0  0  0  0  0  0  0  0  0  0  0  0
    3.3037   -1.4307    0.0000 N   0  0  0  0  0  0  0  0  0  0  0  0
    3.7162   -0.7135    0.0000 C   0  0  0  0  0  0  0  0  0  0  0  0
    3.7162   -2.1442    0.0000 C   0  0  0  0  0  0  0  0  0  0  0  0
    2.0662   -0.7135    0.0000 S   0  0  0  0  0  0  0  0  0  0  0  0
    1.2375   -0.7135    0.0000 C   0  0  0  0  0  0  0  0  0  0  0  0
    0.8250    0.0000    0.0000 S   0  0  0  0  0  0  0  0  0  0  0  0
    0.8250   -1.4307    0.0000 N   0  0  0  0  0  0  0  0  0  0  0  0
    1.2375   -2.1442    0.0000 C   0  0  0  0  0  0  0  0  0  0  0  0
    0.0000   -1.4307    0.0000 C   0  0  0  0  0  0  0  0  0  0  0  0
  1  2  2  0  0  0  0
  2  3  1  0  0  0  0
  2  6  1  0  0  0  0
  3  4  1  0  0  0  0
  3  5  1  0  0  0  0
  6  7  1  0  0  0  0
  7  8  2  0  0  0  0
  7  9  1  0  0  0  0
  9 10  1  0  0  0  0
  9 11  1  0  0  0  0
M  END
>  <Formula>
C6H12N2S3

>  <FW>
208.3679

>  <DSSTox_CID>
1333

>  <SR-HSE>
1

$$$$
