NCGC00091112-09
 OpenBabel06141707472D

 29 30  0  0  0  0  0  0  0  0999 V2000
    3.5796   -3.3286    0.0000 C   0  0  0  0  0  0  0  0  0  0  0  0
    3.5796   -5.8035    0.0000 N   0  3  0  0  0  0  0  0  0  0  0  0
    3.5796   -2.4964    0.0000 C   0  0  0  0  0  0  0  0  0  0  0  0
    3.5796   -4.9713    0.0000 C   0  0  0  0  0  0  0  0  0  0  0  0
    4.2898   -3.7374    0.0000 C   0  0  0  0  0  0  0  0  0  0  0  0
    2.8623   -3.7374    0.0000 C   0  0  0  0  0  0  0  0  0  0  0  0
    2.8623   -4.5481    0.0000 C   0  0  0  0  0  0  0  0  0  0  0  0
    4.2898   -4.5481    0.0000 C   0  0  0  0  0  0  0  0  0  0  0  0
    2.8623   -2.0876    0.0000 C   0  0  0  0  0  0  0  0  0  0  0  0
    4.3113   -2.0876    0.0000 C   0  0  0  0  0  0  0  0  0  0  0  0
    1.4419   -1.2697    0.0000 C   0  0  0  0  0  0  0  0  0  0  0  0
    5.7317   -1.2626    0.0000 C   0  0  0  0  0  0  0  0  0  0  0  0
    6.4706   -0.8178    0.0000 N   0  0  0  0  0  0  0  0  0  0  0  0
    0.7030   -0.8608    0.0000 N   0  0  0  0  0  0  0  0  0  0  0  0
    5.0144   -2.4964    0.0000 C   0  0  0  0  0  0  0  0  0  0  0  0
    2.8623   -1.2697    0.0000 C   0  0  0  0  0  0  0  0  0  0  0  0
    4.3113   -1.2626    0.0000 C   0  0  0  0  0  0  0  0  0  0  0  0
    2.1592   -2.4964    0.0000 C   0  0  0  0  0  0  0  0  0  0  0  0
    2.1592   -0.8608    0.0000 C   0  0  0  0  0  0  0  0  0  0  0  0
    5.0144   -0.8465    0.0000 C   0  0  0  0  0  0  0  0  0  0  0  0
    1.4419   -2.0876    0.0000 C   0  0  0  0  0  0  0  0  0  0  0  0
    5.7317   -2.0876    0.0000 C   0  0  0  0  0  0  0  0  0  0  0  0
    2.8623   -6.2124    0.0000 C   0  0  0  0  0  0  0  0  0  0  0  0
    4.2898   -6.2124    0.0000 C   0  0  0  0  0  0  0  0  0  0  0  0
    0.7030   -0.0287    0.0000 C   0  0  0  0  0  0  0  0  0  0  0  0
    6.4706    0.0000    0.0000 C   0  0  0  0  0  0  0  0  0  0  0  0
    0.0000   -1.2769    0.0000 C   0  0  0  0  0  0  0  0  0  0  0  0
    7.1736   -1.2410    0.0000 C   0  0  0  0  0  0  0  0  0  0  0  0
    5.7030   -5.6098    0.0000 Cl  0  5  0  0  0  0  0  0  0  0  0  0
  1  3  2  0  0  0  0
  1  5  1  0  0  0  0
  1  6  1  0  0  0  0
  2  4  2  0  0  0  0
  2 23  1  0  0  0  0
  2 24  1  0  0  0  0
  3  9  1  0  0  0  0
  3 10  1  0  0  0  0
  4  7  1  0  0  0  0
  4  8  1  0  0  0  0
  5  8  2  0  0  0  0
  6  7  2  0  0  0  0
  9 16  2  0  0  0  0
  9 18  1  0  0  0  0
 10 15  2  0  0  0  0
 10 17  1  0  0  0  0
 11 21  1  0  0  0  0
 11 14  1  0  0  0  0
 11 19  2  0  0  0  0
 12 20  1  0  0  0  0
 12 13  1  0  0  0  0
 12 22  2  0  0  0  0
 13 26  1  0  0  0  0
 13 28  1  0  0  0  0
 14 25  1  0  0  0  0
 14 27  1  0  0  0  0
 15 22  1  0  0  0  0
 16 19  1  0  0  0  0
 17 20  2  0  0  0  0
 18 21  2  0  0  0  0
M  CHG  2   2   1  29  -1
M  END
>  <Formula>
C25H30ClN3

>  <FW>
407.9788 (372.5253+35.4535)

>  <DSSTox_CID>
653

>  <SR-HSE>
1

$$$$
