NCGC00013058-02
 OpenBabel06141707472D

 68 69  0  0  0  0  0  0  0  0999 V2000
    6.7770   -3.4336    0.0000 C   0  0  0  0  0  0  0  0  0  0  0  0
    6.1084   -3.8313    0.0000 C   0  0  0  0  0  0  0  0  0  0  0  0
    7.5179   -3.8313    0.0000 C   0  0  0  0  0  0  0  0  0  0  0  0
    6.7770   -2.5843    0.0000 C   0  0  0  0  0  0  0  0  0  0  0  0
    6.1084   -4.6626    0.0000 C   0  0  0  0  0  0  0  0  0  0  0  0
    5.4035   -3.4336    0.0000 C   0  0  0  0  0  0  0  0  0  0  0  0
    8.2046   -3.4336    0.0000 C   0  0  0  0  0  0  0  0  0  0  0  0
    7.5179   -4.6626    0.0000 C   0  0  0  0  0  0  0  0  0  0  0  0
    7.5179   -2.1867    0.0000 C   0  0  0  0  0  0  0  0  0  0  0  0
    6.1084   -2.1867    0.0000 C   0  0  0  0  0  0  0  0  0  0  0  0
    5.4035   -5.0602    0.0000 C   0  0  0  0  0  0  0  0  0  0  0  0
    4.6806   -3.8313    0.0000 C   0  0  0  0  0  0  0  0  0  0  0  0
    8.9456   -3.8313    0.0000 C   0  0  0  0  0  0  0  0  0  0  0  0
    8.2046   -5.0602    0.0000 C   0  0  0  0  0  0  0  0  0  0  0  0
    7.5179   -1.3554    0.0000 C   0  0  0  0  0  0  0  0  0  0  0  0
    6.1084   -1.3554    0.0000 C   0  0  0  0  0  0  0  0  0  0  0  0
    4.6806   -4.6626    0.0000 C   0  0  0  0  0  0  0  0  0  0  0  0
    8.9456   -4.6626    0.0000 C   0  0  0  0  0  0  0  0  0  0  0  0
    6.7770   -1.0120    0.0000 C   0  0  0  0  0  0  0  0  0  0  0  0
    3.9758   -5.0602    0.0000 N   0  0  0  0  0  0  0  0  0  0  0  0
    9.6324   -5.0602    0.0000 N   0  3  0  0  0  0  0  0  0  0  0  0
    3.2711   -4.6626    0.0000 C   0  0  0  0  0  0  0  0  0  0  0  0
    3.9758   -5.8734    0.0000 C   0  0  0  0  0  0  0  0  0  0  0  0
    9.6324   -5.8734    0.0000 C   0  0  0  0  0  0  0  0  0  0  0  0
   10.3733   -4.6626    0.0000 C   0  0  0  0  0  0  0  0  0  0  0  0
   10.3914   -1.2470    0.0000 C   0  0  0  0  0  0  0  0  0  0  0  0
   11.0781   -1.6807    0.0000 C   0  0  0  0  0  0  0  0  0  0  0  0
    9.6685   -1.6084    0.0000 O   0  0  0  0  0  0  0  0  0  0  0  0
   11.8191   -1.3193    0.0000 O   0  0  0  0  0  0  0  0  0  0  0  0
   10.3914   -0.4157    0.0000 O   0  0  0  0  0  0  0  0  0  0  0  0
   11.0781   -2.4939    0.0000 O   0  5  0  0  0  0  0  0  0  0  0  0
    3.3794   -0.8132    0.0000 C   0  0  0  0  0  0  0  0  0  0  0  0
    4.0662   -1.2470    0.0000 C   0  0  0  0  0  0  0  0  0  0  0  0
    2.6566   -1.1747    0.0000 O   0  0  0  0  0  0  0  0  0  0  0  0
    4.8071   -0.8855    0.0000 O   0  0  0  0  0  0  0  0  0  0  0  0
    3.3794    0.0000    0.0000 O   0  0  0  0  0  0  0  0  0  0  0  0
    4.0662   -2.0783    0.0000 O   0  5  0  0  0  0  0  0  0  0  0  0
   14.4757   -2.4939    0.0000 C   0  0  0  0  0  0  0  0  0  0  0  0
   13.8070   -2.8915    0.0000 C   0  0  0  0  0  0  0  0  0  0  0  0
   15.2166   -2.8915    0.0000 C   0  0  0  0  0  0  0  0  0  0  0  0
   14.4757   -1.6626    0.0000 C   0  0  0  0  0  0  0  0  0  0  0  0
   13.8070   -3.7228    0.0000 C   0  0  0  0  0  0  0  0  0  0  0  0
   13.1022   -2.4939    0.0000 C   0  0  0  0  0  0  0  0  0  0  0  0
   15.9033   -2.4939    0.0000 C   0  0  0  0  0  0  0  0  0  0  0  0
   15.2166   -3.7228    0.0000 C   0  0  0  0  0  0  0  0  0  0  0  0
   15.2166   -1.2651    0.0000 C   0  0  0  0  0  0  0  0  0  0  0  0
   13.8070   -1.2651    0.0000 C   0  0  0  0  0  0  0  0  0  0  0  0
   13.1022   -4.1204    0.0000 C   0  0  0  0  0  0  0  0  0  0  0  0
   12.3793   -2.8915    0.0000 C   0  0  0  0  0  0  0  0  0  0  0  0
   16.6443   -2.8915    0.0000 C   0  0  0  0  0  0  0  0  0  0  0  0
   15.9033   -4.1204    0.0000 C   0  0  0  0  0  0  0  0  0  0  0  0
   15.2166   -0.4157    0.0000 C   0  0  0  0  0  0  0  0  0  0  0  0
   13.8070   -0.4157    0.0000 C   0  0  0  0  0  0  0  0  0  0  0  0
   12.3793   -3.7228    0.0000 C   0  0  0  0  0  0  0  0  0  0  0  0
   16.6443   -3.7228    0.0000 C   0  0  0  0  0  0  0  0  0  0  0  0
   14.4757   -0.0723    0.0000 C   0  0  0  0  0  0  0  0  0  0  0  0
   11.6745   -4.1204    0.0000 N   0  0  0  0  0  0  0  0  0  0  0  0
   17.3310   -4.1204    0.0000 N   0  3  0  0  0  0  0  0  0  0  0  0
   10.9697   -3.7228    0.0000 C   0  0  0  0  0  0  0  0  0  0  0  0
   11.6745   -4.9337    0.0000 C   0  0  0  0  0  0  0  0  0  0  0  0
   17.3310   -4.9337    0.0000 C   0  0  0  0  0  0  0  0  0  0  0  0
   18.0720   -3.7228    0.0000 C   0  0  0  0  0  0  0  0  0  0  0  0
    0.7409   -3.7047    0.0000 C   0  0  0  0  0  0  0  0  0  0  0  0
    1.4277   -4.1385    0.0000 C   0  0  0  0  0  0  0  0  0  0  0  0
    0.0000   -4.0662    0.0000 O   0  0  0  0  0  0  0  0  0  0  0  0
    2.1506   -3.7590    0.0000 O   0  0  0  0  0  0  0  0  0  0  0  0
    0.7409   -2.8734    0.0000 O   0  0  0  0  0  0  0  0  0  0  0  0
    1.4277   -4.9517    0.0000 O   0  0  0  0  0  0  0  0  0  0  0  0
  1  2  1  0  0  0  0
  1  3  2  0  0  0  0
  1  4  1  0  0  0  0
  2  5  2  0  0  0  0
  2  6  1  0  0  0  0
  3  7  1  0  0  0  0
  3  8  1  0  0  0  0
  4  9  1  0  0  0  0
  4 10  2  0  0  0  0
  5 11  1  0  0  0  0
  6 12  2  0  0  0  0
  7 13  2  0  0  0  0
  8 14  2  0  0  0  0
  9 15  2  0  0  0  0
 10 16  1  0  0  0  0
 11 17  2  0  0  0  0
 12 17  1  0  0  0  0
 13 18  1  0  0  0  0
 14 18  1  0  0  0  0
 15 19  1  0  0  0  0
 16 19  2  0  0  0  0
 17 20  1  0  0  0  0
 18 21  2  0  0  0  0
 20 22  1  0  0  0  0
 20 23  1  0  0  0  0
 21 24  1  0  0  0  0
 21 25  1  0  0  0  0
 26 27  1  0  0  0  0
 26 28  2  0  0  0  0
 26 30  1  0  0  0  0
 27 29  2  0  0  0  0
 27 31  1  0  0  0  0
 32 33  1  0  0  0  0
 32 34  2  0  0  0  0
 32 36  1  0  0  0  0
 33 35  2  0  0  0  0
 33 37  1  0  0  0  0
 38 39  1  0  0  0  0
 38 40  2  0  0  0  0
 38 41  1  0  0  0  0
 39 42  2  0  0  0  0
 39 43  1  0  0  0  0
 40 44  1  0  0  0  0
 40 45  1  0  0  0  0
 41 46  1  0  0  0  0
 41 47  2  0  0  0  0
 42 48  1  0  0  0  0
 43 49  2  0  0  0  0
 44 50  2  0  0  0  0
 45 51  2  0  0  0  0
 46 52  2  0  0  0  0
 47 53  1  0  0  0  0
 48 54  2  0  0  0  0
 49 54  1  0  0  0  0
 50 55  1  0  0  0  0
 51 55  1  0  0  0  0
 52 56  1  0  0  0  0
 53 56  2  0  0  0  0
 54 57  1  0  0  0  0
 55 58  2  0  0  0  0
 57 59  1  0  0  0  0
 57 60  1  0  0  0  0
 58 61  1  0  0  0  0
 58 62  1  0  0  0  0
 63 64  1  0  0  0  0
 63 65  2  0  0  0  0
 63 67  1  0  0  0  0
 64 66  2  0  0  0  0
 64 68  1  0  0  0  0
M  CHG  4  21   1  31  -1  37  -1  58   1
M  END
>  <Formula>
C52H54N4O12

>  <FW>
927.0048 (329.4575+89.0275+89.0275+329.4575+90.0349)

>  <DSSTox_CID>
5513

>  <SR-HSE>
1

$$$$
