NCGC00259290-01
 OpenBabel06141707492D

 11 11  0  0  0  0  0  0  0  0999 V2000
    1.4262    0.0000    0.0000 O   0  0  0  0  0  0  0  0  0  0  0  0
    1.4262   -0.8223    0.0000 C   0  0  0  0  0  0  0  0  0  0  0  0
    2.1415   -1.2335    0.0000 C   0  0  0  0  0  0  0  0  0  0  0  0
    2.1415   -2.0601    0.0000 C   0  0  0  0  0  0  0  0  0  0  0  0
    1.4262   -2.4713    0.0000 N   0  0  0  0  0  0  0  0  0  0  0  0
    0.7152   -2.0601    0.0000 C   0  0  0  0  0  0  0  0  0  0  0  0
    0.0000   -2.4713    0.0000 S   0  0  0  0  0  0  0  0  0  0  0  0
    0.7152   -1.2335    0.0000 N   0  0  0  0  0  0  0  0  0  0  0  0
    2.8567   -2.4713    0.0000 C   0  0  0  0  0  0  0  0  0  0  0  0
    3.5677   -2.0601    0.0000 C   0  0  0  0  0  0  0  0  0  0  0  0
    4.2829   -2.4713    0.0000 C   0  0  0  0  0  0  0  0  0  0  0  0
  1  2  2  0  0  0  0
  2  3  1  0  0  0  0
  2  8  1  0  0  0  0
  3  4  2  0  0  0  0
  4  5  1  0  0  0  0
  4  9  1  0  0  0  0
  5  6  1  0  0  0  0
  6  7  2  0  0  0  0
  6  8  1  0  0  0  0
  9 10  1  0  0  0  0
 10 11  1  0  0  0  0
M  END
>  <Formula>
C7H10N2OS

>  <FW>
170.2321

>  <DSSTox_CID>
1209

>  <NR-Aromatase>
0

>  <NR-AR>
0

>  <NR-AR-LBD>
0

>  <NR-ER>
0

>  <NR-ER-LBD>
0

>  <NR-PPAR-gamma>
0

>  <NR-AhR>
0

>  <SR-ARE>
0

>  <SR-ATAD5>
0

>  <SR-HSE>
0

>  <SR-MMP>
0

>  <SR-p53>
0

$$$$
