NCGC00256592-01
 OpenBabel06141707492D

  9  8  0  0  0  0  0  0  0  0999 V2000
    0.0000   -0.4118    0.0000 C   0  0  0  0  0  0  0  0  0  0  0  0
    0.7149    0.0000    0.0000 C   0  0  0  0  0  0  0  0  0  0  0  0
    1.4298   -0.4118    0.0000 C   0  0  0  0  0  0  0  0  0  0  0  0
    2.1447    0.0000    0.0000 C   0  0  0  0  0  0  0  0  0  0  0  0
    2.8595   -0.4118    0.0000 C   0  0  0  0  0  0  0  0  0  0  0  0
    3.5744    0.0000    0.0000 C   0  0  0  0  0  0  0  0  0  0  0  0
    4.2893   -0.4118    0.0000 C   0  0  0  0  0  0  0  0  0  0  0  0
    5.0042    0.0000    0.0000 C   0  0  0  0  0  0  0  0  0  0  0  0
    5.7191   -0.4118    0.0000 Cl  0  0  0  0  0  0  0  0  0  0  0  0
  1  2  1  0  0  0  0
  2  3  1  0  0  0  0
  3  4  1  0  0  0  0
  4  5  1  0  0  0  0
  5  6  1  0  0  0  0
  6  7  1  0  0  0  0
  7  8  1  0  0  0  0
  8  9  1  0  0  0  0
M  END
>  <Formula>
C8H17Cl

>  <FW>
148.6736

>  <DSSTox_CID>
1543

>  <NR-Aromatase>
0

>  <NR-AR>
0

>  <NR-AR-LBD>
0

>  <NR-ER>
0

>  <NR-ER-LBD>
0

>  <NR-PPAR-gamma>
0

>  <NR-AhR>
0

>  <SR-ARE>
0

>  <SR-ATAD5>
0

>  <SR-HSE>
1

>  <SR-MMP>
0

>  <SR-p53>
0

$$$$
