NCGC00177980-03
 OpenBabel06141707472D

 30 31  0  0  0  0  0  0  0  0999 V2000
    4.7026   -5.0491    0.0000 O   0  0  0  0  0  0  0  0  0  0  0  0
    4.2900   -5.7586    0.0000 N   0  3  0  0  0  0  0  0  0  0  0  0
    4.7026   -6.4764    0.0000 O   0  5  0  0  0  0  0  0  0  0  0  0
    3.4650   -5.7586    0.0000 O   0  0  0  0  0  0  0  0  0  0  0  0
    8.2501   -2.7390    0.0000 Cl  0  0  0  0  0  0  0  0  0  0  0  0
    7.4251   -2.7390    0.0000 C   0  0  0  0  0  0  0  0  0  0  0  0
    7.0126   -3.4485    0.0000 C   0  0  0  0  0  0  0  0  0  0  0  0
    6.1876   -3.4485    0.0000 C   0  0  0  0  0  0  0  0  0  0  0  0
    5.7751   -2.7390    0.0000 C   0  0  0  0  0  0  0  0  0  0  0  0
    4.9501   -2.7390    0.0000 C   0  0  0  0  0  0  0  0  0  0  0  0
    4.5376   -3.4485    0.0000 O   0  0  0  0  0  0  0  0  0  0  0  0
    3.7125   -3.4485    0.0000 N   0  0  0  0  0  0  0  0  0  0  0  0
    3.3001   -2.7390    0.0000 C   0  0  0  0  0  0  0  0  0  0  0  0
    3.7125   -2.0213    0.0000 C   0  0  0  0  0  0  0  0  0  0  0  0
    3.3001   -1.3117    0.0000 N   0  0  0  0  0  0  0  0  0  0  0  0
    3.6383   -0.5528    0.0000 C   0  0  0  0  0  0  0  0  0  0  0  0
    3.0195    0.0000    0.0000 C   0  0  0  0  0  0  0  0  0  0  0  0
    2.3100   -0.4125    0.0000 N   0  0  0  0  0  0  0  0  0  0  0  0
    2.4833   -1.2210    0.0000 C   0  0  0  0  0  0  0  0  0  0  0  0
    2.4751   -2.7390    0.0000 C   0  0  0  0  0  0  0  0  0  0  0  0
    2.0625   -2.0213    0.0000 C   0  0  0  0  0  0  0  0  0  0  0  0
    1.2375   -2.0213    0.0000 C   0  0  0  0  0  0  0  0  0  0  0  0
    0.8250   -2.7390    0.0000 C   0  0  0  0  0  0  0  0  0  0  0  0
    0.0000   -2.7390    0.0000 Cl  0  0  0  0  0  0  0  0  0  0  0  0
    1.2375   -3.4485    0.0000 C   0  0  0  0  0  0  0  0  0  0  0  0
    2.0625   -3.4485    0.0000 C   0  0  0  0  0  0  0  0  0  0  0  0
    2.4751   -4.1663    0.0000 Cl  0  0  0  0  0  0  0  0  0  0  0  0
    6.1876   -2.0213    0.0000 C   0  0  0  0  0  0  0  0  0  0  0  0
    7.0126   -2.0213    0.0000 C   0  0  0  0  0  0  0  0  0  0  0  0
    5.7751   -1.3117    0.0000 Cl  0  0  0  0  0  0  0  0  0  0  0  0
  1  2  1  0  0  0  0
  2  3  1  0  0  0  0
  2  4  2  0  0  0  0
  5  6  1  0  0  0  0
  6  7  2  0  0  0  0
  6 29  1  0  0  0  0
  7  8  1  0  0  0  0
  8  9  2  0  0  0  0
  9 10  1  0  0  0  0
  9 28  1  0  0  0  0
 10 11  1  0  0  0  0
 11 12  1  0  0  0  0
 12 13  2  0  0  0  0
 13 14  1  0  0  0  0
 13 20  1  0  0  0  0
 14 15  1  0  0  0  0
 15 16  1  0  0  0  0
 15 19  1  0  0  0  0
 16 17  2  0  0  0  0
 17 18  1  0  0  0  0
 18 19  2  0  0  0  0
 20 21  2  0  0  0  0
 20 26  1  0  0  0  0
 21 22  1  0  0  0  0
 22 23  2  0  0  0  0
 23 24  1  0  0  0  0
 23 25  1  0  0  0  0
 25 26  2  0  0  0  0
 26 27  1  0  0  0  0
 28 29  2  0  0  0  0
 28 30  1  0  0  0  0
M  CHG  2   2   1   3  -1
M  END
>  <Formula>
C18H14Cl4N4O4

>  <FW>
492.1402 (63.0128+429.1273)

>  <DSSTox_CID>
25943

>  <SR-HSE>
1

$$$$
