NCGC00178831-03
 OpenBabel06141707472D

 34 37  0  0  0  0  0  0  0  0999 V2000
    4.8814   -2.7443    0.0000 Cl  0  5  0  0  0  0  0  0  0  0  0  0
    2.8647   -2.4751    0.0000 C   0  0  0  0  0  0  0  0  0  0  0  0
    2.8647   -1.6501    0.0000 N   0  3  0  0  0  0  0  0  0  0  0  0
    3.5808   -1.2318    0.0000 C   0  0  0  0  0  0  0  0  0  0  0  0
    4.2970   -1.6501    0.0000 C   0  0  0  0  0  0  0  0  0  0  0  0
    5.0017   -1.2318    0.0000 C   0  0  0  0  0  0  0  0  0  0  0  0
    5.7179   -1.6501    0.0000 N   0  0  0  0  0  0  0  0  0  0  0  0
    5.0017   -0.4068    0.0000 C   0  0  0  0  0  0  0  0  0  0  0  0
    4.2970    0.0000    0.0000 C   0  0  0  0  0  0  0  0  0  0  0  0
    3.5808   -0.4068    0.0000 C   0  0  0  0  0  0  0  0  0  0  0  0
    2.8647    0.0000    0.0000 C   0  0  0  0  0  0  0  0  0  0  0  0
    2.1485   -0.4068    0.0000 C   0  0  0  0  0  0  0  0  0  0  0  0
    2.1485   -1.2318    0.0000 C   0  0  0  0  0  0  0  0  0  0  0  0
    1.4324   -1.6501    0.0000 C   0  0  0  0  0  0  0  0  0  0  0  0
    0.7162   -1.2318    0.0000 C   0  0  0  0  0  0  0  0  0  0  0  0
    0.0000   -1.6501    0.0000 N   0  0  0  0  0  0  0  0  0  0  0  0
    0.7162   -0.4068    0.0000 C   0  0  0  0  0  0  0  0  0  0  0  0
    1.4324    0.0000    0.0000 C   0  0  0  0  0  0  0  0  0  0  0  0
    2.8761   -3.5407    0.0000 N   0  0  0  0  0  0  0  0  0  0  0  0
    3.5923   -3.9590    0.0000 C   0  0  0  0  0  0  0  0  0  0  0  0
    4.3084   -3.5407    0.0000 C   0  0  0  0  0  0  0  0  0  0  0  0
    5.0132   -3.9590    0.0000 C   0  0  0  0  0  0  0  0  0  0  0  0
    5.7293   -3.5407    0.0000 N   0  0  0  0  0  0  0  0  0  0  0  0
    5.0132   -4.7840    0.0000 C   0  0  0  0  0  0  0  0  0  0  0  0
    4.3084   -5.1908    0.0000 C   0  0  0  0  0  0  0  0  0  0  0  0
    3.5923   -4.7840    0.0000 C   0  0  0  0  0  0  0  0  0  0  0  0
    2.8761   -5.1908    0.0000 C   0  0  0  0  0  0  0  0  0  0  0  0
    2.1599   -4.7840    0.0000 C   0  0  0  0  0  0  0  0  0  0  0  0
    2.1599   -3.9590    0.0000 C   0  0  0  0  0  0  0  0  0  0  0  0
    1.4438   -3.5407    0.0000 C   0  0  0  0  0  0  0  0  0  0  0  0
    0.7276   -3.9590    0.0000 C   0  0  0  0  0  0  0  0  0  0  0  0
    0.0115   -3.5407    0.0000 N   0  0  0  0  0  0  0  0  0  0  0  0
    0.7276   -4.7840    0.0000 C   0  0  0  0  0  0  0  0  0  0  0  0
    1.4438   -5.1908    0.0000 C   0  0  0  0  0  0  0  0  0  0  0  0
  2  3  1  0  0  0  0
  3  4  2  0  0  0  0
  3 13  1  0  0  0  0
  4  5  1  0  0  0  0
  4 10  1  0  0  0  0
  5  6  2  0  0  0  0
  6  7  1  0  0  0  0
  6  8  1  0  0  0  0
  8  9  2  0  0  0  0
  9 10  1  0  0  0  0
 10 11  2  0  0  0  0
 11 12  1  0  0  0  0
 12 13  2  0  0  0  0
 12 18  1  0  0  0  0
 13 14  1  0  0  0  0
 14 15  2  0  0  0  0
 15 16  1  0  0  0  0
 15 17  1  0  0  0  0
 17 18  2  0  0  0  0
 19 20  2  0  0  0  0
 19 29  1  0  0  0  0
 20 21  1  0  0  0  0
 20 26  1  0  0  0  0
 21 22  2  0  0  0  0
 22 23  1  0  0  0  0
 22 24  1  0  0  0  0
 24 25  2  0  0  0  0
 25 26  1  0  0  0  0
 26 27  2  0  0  0  0
 27 28  1  0  0  0  0
 28 29  2  0  0  0  0
 28 34  1  0  0  0  0
 29 30  1  0  0  0  0
 30 31  2  0  0  0  0
 31 32  1  0  0  0  0
 31 33  1  0  0  0  0
 33 34  2  0  0  0  0
M  CHG  2   1  -1   3   1
M  END
>  <Formula>
C27H25ClN6

>  <FW>
468.9806 (35.4535+224.2805+209.2465)

>  <DSSTox_CID>
25848

>  <SR-HSE>
0

$$$$
