NCGC00160664-03
 OpenBabel06141707472D

 14 15  0  0  0  0  0  0  0  0999 V2000
    0.7141   -3.6998    0.0000 O   0  0  0  0  0  0  0  0  0  0  0  0
    0.7141   -2.8747    0.0000 C   0  0  0  0  0  0  0  0  0  0  0  0
    0.0000   -2.4714    0.0000 C   0  0  0  0  0  0  0  0  0  0  0  0
    0.0000   -1.6464    0.0000 C   0  0  0  0  0  0  0  0  0  0  0  0
    0.7141   -1.2283    0.0000 C   0  0  0  0  0  0  0  0  0  0  0  0
    1.4281   -1.6464    0.0000 C   0  0  0  0  0  0  0  0  0  0  0  0
    1.4281   -2.4714    0.0000 C   0  0  0  0  0  0  0  0  0  0  0  0
    2.1421   -2.8747    0.0000 N   0  0  0  0  0  0  0  0  0  0  0  0
    2.8562   -2.4603    0.0000 C   0  0  0  0  0  0  0  0  0  0  0  0
    2.8451   -1.6353    0.0000 C   0  0  0  0  0  0  0  0  0  0  0  0
    2.1421   -1.2283    0.0000 C   0  0  0  0  0  0  0  0  0  0  0  0
    0.7141   -0.4070    0.0000 N   0  3  0  0  0  0  0  0  0  0  0  0
    0.0000    0.0000    0.0000 O   0  5  0  0  0  0  0  0  0  0  0  0
    1.4170    0.0000    0.0000 O   0  0  0  0  0  0  0  0  0  0  0  0
  1  2  1  0  0  0  0
  2  3  2  0  0  0  0
  2  7  1  0  0  0  0
  3  4  1  0  0  0  0
  4  5  2  0  0  0  0
  5  6  1  0  0  0  0
  5 12  1  0  0  0  0
  6  7  2  0  0  0  0
  6 11  1  0  0  0  0
  7  8  1  0  0  0  0
  8  9  2  0  0  0  0
  9 10  1  0  0  0  0
 10 11  2  0  0  0  0
 12 13  1  0  0  0  0
 12 14  2  0  0  0  0
M  CHG  2  12   1  13  -1
M  END
>  <Formula>
C9H6N2O3

>  <FW>
190.1555

>  <DSSTox_CID>
26284

>  <SR-HSE>
1

$$$$
