NCGC00258213-01
 OpenBabel06141707472D

 17 18  0  0  1  0  0  0  0  0999 V2000
    2.0688   -0.6770    0.0000 Cl  0  0  0  0  0  0  0  0  0  0  0  0
    1.5398   -1.1934    0.0000 C   0  0  1  0  0  0  0  0  0  0  0  0
    2.2577   -1.6091    0.0000 C   0  0  0  0  0  0  0  0  0  0  0  0
    2.2577   -2.4341    0.0000 C   0  0  0  0  0  0  0  0  0  0  0  0
    2.6702   -3.1488    0.0000 Cl  0  0  0  0  0  0  0  0  0  0  0  0
    3.0827   -2.4341    0.0000 Cl  0  0  0  0  0  0  0  0  0  0  0  0
    1.5398   -2.1286    0.0000 C   0  0  2  0  0  0  0  0  0  0  0  0
    1.2438   -0.6455    0.0000 C   0  0  3  0  0  0  0  0  0  0  0  0
    1.3414    0.0000    0.0000 Cl  0  0  0  0  0  0  0  0  0  0  0  0
    1.6311   -2.9882    0.0000 Cl  0  0  0  0  0  0  0  0  0  0  0  0
    0.8250   -2.4341    0.0000 C   0  0  0  0  0  0  0  0  0  0  0  0
    0.1102   -2.8465    0.0000 C   0  0  0  0  0  0  0  0  0  0  0  0
    0.8250   -1.6091    0.0000 C   0  0  0  0  0  0  0  0  0  0  0  0
    0.0000   -1.6091    0.0000 C   0  0  0  0  0  0  0  0  0  0  0  0
    0.4156   -0.8911    0.0000 C   0  0  0  0  0  0  0  0  0  0  0  0
    2.6702   -0.8911    0.0000 Cl  0  0  0  0  0  0  0  0  0  0  0  0
    3.0827   -1.6091    0.0000 Cl  0  0  0  0  0  0  0  0  0  0  0  0
  2  1  1  6  0  0  0
  2  3  1  0  0  0  0
  2  8  1  0  0  0  0
  2 13  1  0  0  0  0
  3  4  1  0  0  0  0
  3 16  1  0  0  0  0
  3 17  1  0  0  0  0
  4  5  1  0  0  0  0
  4  6  1  0  0  0  0
  4  7  1  0  0  0  0
  7  8  1  0  0  0  0
  7 10  1  1  0  0  0
  7 11  1  0  0  0  0
  8  9  1  0  0  0  0
 11 12  2  0  0  0  0
 11 13  1  0  0  0  0
 13 14  1  0  0  0  0
 13 15  1  0  0  0  0
M  END
>  <Formula>
C10H9Cl7

>  <FW>
377.3495

>  <DSSTox_CID>
1283

>  <NR-AR>
0

>  <NR-AR-LBD>
0

>  <NR-PPAR-gamma>
0

>  <SR-ARE>
1

>  <SR-ATAD5>
0

>  <SR-HSE>
1

>  <SR-MMP>
1

$$$$
