NCGC00016000-18
 OpenBabel06141707472D

 16 15  0  0  0  0  0  0  0  0999 V2000
    1.2375   -2.8554    0.0000 S   0  0  0  0  0  0  0  0  0  0  0  0
    1.6501   -2.1429    0.0000 C   0  0  0  0  0  0  0  0  0  0  0  0
    1.2375   -1.4250    0.0000 N   0  0  0  0  0  0  0  0  0  0  0  0
    0.4125   -1.4250    0.0000 C   0  0  0  0  0  0  0  0  0  0  0  0
    0.0000   -2.1429    0.0000 C   0  0  0  0  0  0  0  0  0  0  0  0
    1.6501   -0.7125    0.0000 C   0  0  0  0  0  0  0  0  0  0  0  0
    1.2375    0.0000    0.0000 C   0  0  0  0  0  0  0  0  0  0  0  0
    2.4751   -2.1429    0.0000 S   0  0  0  0  0  0  0  0  0  0  0  0
    2.8822   -2.8554    0.0000 S   0  0  0  0  0  0  0  0  0  0  0  0
    3.7072   -2.8554    0.0000 C   0  0  0  0  0  0  0  0  0  0  0  0
    4.1197   -3.5679    0.0000 S   0  0  0  0  0  0  0  0  0  0  0  0
    4.1197   -2.1429    0.0000 N   0  0  0  0  0  0  0  0  0  0  0  0
    3.7072   -1.4250    0.0000 C   0  0  0  0  0  0  0  0  0  0  0  0
    2.8822   -1.4250    0.0000 C   0  0  0  0  0  0  0  0  0  0  0  0
    4.9447   -2.1429    0.0000 C   0  0  0  0  0  0  0  0  0  0  0  0
    5.3573   -1.4250    0.0000 C   0  0  0  0  0  0  0  0  0  0  0  0
  1  2  2  0  0  0  0
  2  3  1  0  0  0  0
  2  8  1  0  0  0  0
  3  4  1  0  0  0  0
  3  6  1  0  0  0  0
  4  5  1  0  0  0  0
  6  7  1  0  0  0  0
  8  9  1  0  0  0  0
  9 10  1  0  0  0  0
 10 11  2  0  0  0  0
 10 12  1  0  0  0  0
 12 13  1  0  0  0  0
 12 15  1  0  0  0  0
 13 14  1  0  0  0  0
 15 16  1  0  0  0  0
M  END
>  <Formula>
C10H20N2S4

>  <FW>
296.5392

>  <DSSTox_CID>
1322

>  <SR-HSE>
1

$$$$
