NCGC00015747-09
 OpenBabel06141707472D

 35 37  0  0  0  0  0  0  0  0999 V2000
    0.7134   -2.8877    0.0000 C   0  0  0  0  0  0  0  0  0  0  0  0
    0.0000   -2.4751    0.0000 C   0  0  0  0  0  0  0  0  0  0  0  0
    1.4352   -2.4751    0.0000 C   0  0  0  0  0  0  0  0  0  0  0  0
    1.4352   -1.6501    0.0000 C   0  0  0  0  0  0  0  0  0  0  0  0
    2.1486   -1.2376    0.0000 O   0  0  0  0  0  0  0  0  0  0  0  0
    0.7134   -1.2376    0.0000 O   0  0  0  0  0  0  0  0  0  0  0  0
    0.0000   -1.6501    0.0000 C   0  0  0  0  0  0  0  0  0  0  0  0
    2.1486   -2.8877    0.0000 C   0  0  3  0  0  0  0  0  0  0  0  0
    2.8619   -2.4751    0.0000 C   0  0  0  0  0  0  0  0  0  0  0  0
    3.5838   -2.8877    0.0000 C   0  0  0  0  0  0  0  0  0  0  0  0
    4.2971   -2.4751    0.0000 C   0  0  0  0  0  0  0  0  0  0  0  0
    4.2971   -1.6501    0.0000 C   0  0  0  0  0  0  0  0  0  0  0  0
    3.5838   -1.2376    0.0000 C   0  0  0  0  0  0  0  0  0  0  0  0
    3.5838   -0.4125    0.0000 N   0  3  0  0  0  0  0  0  0  0  0  0
    4.2971    0.0000    0.0000 O   0  5  0  0  0  0  0  0  0  0  0  0
    2.8619    0.0000    0.0000 O   0  0  0  0  0  0  0  0  0  0  0  0
    2.8619   -1.6501    0.0000 C   0  0  0  0  0  0  0  0  0  0  0  0
    2.1486   -3.7213    0.0000 C   0  0  0  0  0  0  0  0  0  0  0  0
    2.8619   -4.1338    0.0000 C   0  0  0  0  0  0  0  0  0  0  0  0
    2.8619   -4.9589    0.0000 O   0  0  0  0  0  0  0  0  0  0  0  0
    3.5838   -3.7213    0.0000 O   0  0  0  0  0  0  0  0  0  0  0  0
    4.2971   -4.1338    0.0000 C   0  0  0  0  0  0  0  0  0  0  0  0
    5.0104   -3.7213    0.0000 C   0  0  0  0  0  0  0  0  0  0  0  0
    5.7324   -4.1338    0.0000 N   0  0  0  0  0  0  0  0  0  0  0  0
    5.7324   -4.9589    0.0000 C   0  0  0  0  0  0  0  0  0  0  0  0
    6.4457   -3.7213    0.0000 C   0  0  0  0  0  0  0  0  0  0  0  0
    7.1590   -4.1338    0.0000 C   0  0  0  0  0  0  0  0  0  0  0  0
    7.8809   -3.7213    0.0000 C   0  0  0  0  0  0  0  0  0  0  0  0
    8.5943   -4.1338    0.0000 C   0  0  0  0  0  0  0  0  0  0  0  0
    8.5943   -4.9589    0.0000 C   0  0  0  0  0  0  0  0  0  0  0  0
    7.8809   -5.3714    0.0000 C   0  0  0  0  0  0  0  0  0  0  0  0
    7.1590   -4.9589    0.0000 C   0  0  0  0  0  0  0  0  0  0  0  0
    1.4352   -4.1338    0.0000 C   0  0  0  0  0  0  0  0  0  0  0  0
    1.4352   -4.9589    0.0000 C   0  0  0  0  0  0  0  0  0  0  0  0
    0.7134   -3.7213    0.0000 N   0  0  0  0  0  0  0  0  0  0  0  0
  1  2  1  0  0  0  0
  1  3  2  0  0  0  0
  1 35  1  0  0  0  0
  3  4  1  0  0  0  0
  3  8  1  0  0  0  0
  4  5  2  0  0  0  0
  4  6  1  0  0  0  0
  6  7  1  0  0  0  0
  8  9  1  0  0  0  0
  8 18  1  0  0  0  0
  9 10  2  0  0  0  0
  9 17  1  0  0  0  0
 10 11  1  0  0  0  0
 11 12  2  0  0  0  0
 12 13  1  0  0  0  0
 13 14  1  0  0  0  0
 13 17  2  0  0  0  0
 14 15  1  0  0  0  0
 14 16  2  0  0  0  0
 18 19  1  0  0  0  0
 18 33  2  0  0  0  0
 19 20  2  0  0  0  0
 19 21  1  0  0  0  0
 21 22  1  0  0  0  0
 22 23  1  0  0  0  0
 23 24  1  0  0  0  0
 24 25  1  0  0  0  0
 24 26  1  0  0  0  0
 26 27  1  0  0  0  0
 27 28  2  0  0  0  0
 27 32  1  0  0  0  0
 28 29  1  0  0  0  0
 29 30  2  0  0  0  0
 30 31  1  0  0  0  0
 31 32  2  0  0  0  0
 33 34  1  0  0  0  0
 33 35  1  0  0  0  0
M  CHG  2  14   1  15  -1
M  END
>  <Formula>
C26H29N3O6

>  <FW>
479.5250

>  <DSSTox_CID>
3363

>  <SR-HSE>
1

$$$$
