NCGC00159476-09
 OpenBabel06141707472D

 19 20  0  0  0  0  0  0  0  0999 V2000
    3.7193   -1.4319    0.0000 C   0  0  0  0  0  0  0  0  0  0  0  0
    3.3039   -0.7190    0.0000 O   0  0  0  0  0  0  0  0  0  0  0  0
    3.3039   -2.1510    0.0000 N   0  0  0  0  0  0  0  0  0  0  0  0
    2.4795   -2.1510    0.0000 C   0  0  0  0  0  0  0  0  0  0  0  0
    2.0642   -2.8638    0.0000 C   0  0  0  0  0  0  0  0  0  0  0  0
    1.2398   -2.8638    0.0000 C   0  0  0  0  0  0  0  0  0  0  0  0
    0.8244   -2.1510    0.0000 C   0  0  0  0  0  0  0  0  0  0  0  0
    0.0000   -2.1510    0.0000 Br  0  0  0  0  0  0  0  0  0  0  0  0
    1.2398   -1.4319    0.0000 C   0  0  0  0  0  0  0  0  0  0  0  0
    2.0642   -1.4319    0.0000 C   0  0  0  0  0  0  0  0  0  0  0  0
    4.5437   -1.4319    0.0000 C   0  0  0  0  0  0  0  0  0  0  0  0
    4.9590   -0.7190    0.0000 C   0  0  0  0  0  0  0  0  0  0  0  0
    5.7834   -0.7190    0.0000 C   0  0  0  0  0  0  0  0  0  0  0  0
    6.1988    0.0000    0.0000 Br  0  0  0  0  0  0  0  0  0  0  0  0
    6.1988   -1.4319    0.0000 C   0  0  0  0  0  0  0  0  0  0  0  0
    5.7834   -2.1510    0.0000 C   0  0  0  0  0  0  0  0  0  0  0  0
    6.1988   -2.8638    0.0000 Br  0  0  0  0  0  0  0  0  0  0  0  0
    4.9590   -2.1510    0.0000 C   0  0  0  0  0  0  0  0  0  0  0  0
    4.5437   -2.8638    0.0000 O   0  0  0  0  0  0  0  0  0  0  0  0
  1  2  2  0  0  0  0
  1  3  1  0  0  0  0
  1 11  1  0  0  0  0
  3  4  1  0  0  0  0
  4  5  2  0  0  0  0
  4 10  1  0  0  0  0
  5  6  1  0  0  0  0
  6  7  2  0  0  0  0
  7  8  1  0  0  0  0
  7  9  1  0  0  0  0
  9 10  2  0  0  0  0
 11 12  2  0  0  0  0
 11 18  1  0  0  0  0
 12 13  1  0  0  0  0
 13 14  1  0  0  0  0
 13 15  2  0  0  0  0
 15 16  1  0  0  0  0
 16 17  1  0  0  0  0
 16 18  2  0  0  0  0
 18 19  1  0  0  0  0
M  END
>  <Formula>
C13H8Br3NO2

>  <FW>
449.9201

>  <DSSTox_CID>
6181

>  <SR-HSE>
1

$$$$
