NCGC00096056-02
 OpenBabel06141707472D

 26 26  0  0  0  0  0  0  0  0999 V2000
    3.5846   -1.2316    0.0000 C   0  0  0  0  0  0  0  0  0  0  0  0
    2.8710   -2.4718    0.0000 N   0  0  0  0  0  0  0  0  0  0  0  0
    2.1575   -2.0641    0.0000 C   0  0  0  0  0  0  0  0  0  0  0  0
    2.8710   -0.8325    0.0000 C   0  0  0  0  0  0  0  0  0  0  0  0
    2.1575   -1.2316    0.0000 C   0  0  0  0  0  0  0  0  0  0  0  0
    3.5846   -2.0641    0.0000 C   0  0  0  0  0  0  0  0  0  0  0  0
    1.4525   -2.4718    0.0000 C   0  0  0  0  0  0  0  0  0  0  0  0
    1.4525   -0.8325    0.0000 C   0  0  0  0  0  0  0  0  0  0  0  0
    4.2896   -0.8325    0.0000 C   0  0  0  0  0  0  0  0  0  0  0  0
    4.2896   -2.4718    0.0000 C   0  0  0  0  0  0  0  0  0  0  0  0
    2.8710    0.0000    0.0000 N   0  0  0  0  0  0  0  0  0  0  0  0
    0.7305   -2.0641    0.0000 C   0  0  0  0  0  0  0  0  0  0  0  0
    5.0031   -1.2316    0.0000 C   0  0  0  0  0  0  0  0  0  0  0  0
    0.7305   -1.2316    0.0000 C   0  0  0  0  0  0  0  0  0  0  0  0
    0.0000   -2.4888    0.0000 N   0  0  0  0  0  0  0  0  0  0  0  0
    5.0031   -2.0641    0.0000 C   0  0  0  0  0  0  0  0  0  0  0  0
    5.7336   -0.8239    0.0000 O   0  0  0  0  0  0  0  0  0  0  0  0
    6.4556   -1.2316    0.0000 C   0  0  0  0  0  0  0  0  0  0  0  0
    7.1607   -0.8154    0.0000 C   0  0  0  0  0  0  0  0  0  0  0  0
    7.0503   -2.9135    0.0000 C   0  0  3  0  0  0  0  0  0  0  0  0
    7.7637   -2.4973    0.0000 C   0  0  0  0  0  0  0  0  0  0  0  0
    6.3367   -2.4973    0.0000 C   0  0  0  0  0  0  0  0  0  0  0  0
    7.0503   -3.7460    0.0000 O   0  0  0  0  0  0  0  0  0  0  0  0
    8.4942   -2.9135    0.0000 O   0  0  0  0  0  0  0  0  0  0  0  0
    7.7637   -1.6648    0.0000 O   0  0  0  0  0  0  0  0  0  0  0  0
    2.4294   -3.0494    0.0000 O   0  0  0  0  0  0  0  0  0  0  0  0
  1  4  2  0  0  0  0
  1  6  1  0  0  0  0
  1  9  1  0  0  0  0
  2  6  2  0  0  0  0
  2  3  1  0  0  0  0
  3  7  1  0  0  0  0
  3  5  2  0  0  0  0
  4  5  1  0  0  0  0
  4 11  1  0  0  0  0
  5  8  1  0  0  0  0
  6 10  1  0  0  0  0
  7 12  2  0  0  0  0
  8 14  2  0  0  0  0
  9 13  2  0  0  0  0
 10 16  2  0  0  0  0
 12 15  1  0  0  0  0
 12 14  1  0  0  0  0
 13 16  1  0  0  0  0
 13 17  1  0  0  0  0
 17 18  1  0  0  0  0
 18 19  1  0  0  0  0
 20 21  1  0  0  0  0
 20 23  1  0  0  0  0
 20 22  1  0  0  0  0
 21 24  1  0  0  0  0
 21 25  2  0  0  0  0
M  END
>  <Formula>
C18H23N3O5

>  <FW>
361.3923 (253.2991+90.0779+18.0153)

>  <DSSTox_CID>
26274

>  <SR-HSE>
1

$$$$
